/*--------------------------------*- C++ -*----------------------------------*\
| =========                 |                                                 |
| \\      /  F ield         | OpenFOAM: The Open Source CFD Toolbox           |
|  \\    /   O peration     | Version:  2106                                  |
|   \\  /    A nd           | Website:  www.openfoam.com                      |
|    \\/     M anipulation  |                                                 |
\*---------------------------------------------------------------------------*/
FoamFile
{
    version     2.0;
    format      ascii;
    arch        "LSB;label=32;scalar=64";
    class       volVectorField;
    location    "0";
    object      U;
}
// * * * * * * * * * * * * * * * * * * * * * * * * * * * * * * * * * * * * * //

dimensions      [0 1 -1 0 0 0 0];

internalField   uniform (0 0 0);

boundaryField
{
    // #includeEtc "caseDicts/setConstraintTypes"

    inflow
    {
        // type            cyclic;
        type            groovyBC;
        value           uniform (0 0 0);
        // valueExpression "y<=normalDepth ? vector(normalVel,0,0) : vector(0,0,0)";
        valueExpression "normalVel*vector(1,0,0)";
        variables       (
            "normalDepth=0.38093709;"
            "normalVel=3.3915176;"
        );
    }

    outflow
    {
        // type            cyclic;
        // type    zeroGradient;
        type            inletOutlet;
        inletValue      uniform (0 0 0);
        value           uniform (0 0 0);
    }

    lowerWall
    {
        type            noSlip;
    }

    atmosphere
    {
        type            pressureInletOutletVelocity;
        value           uniform (0 0 0);
    }

    frontAndBack
    {
        type            empty;
    }
}


// ************************************************************************* //
