/*--------------------------------*- C++ -*----------------------------------*\
| =========                 |                                                 |
| \\      /  F ield         | OpenFOAM: The Open Source CFD Toolbox           |
|  \\    /   O peration     | Website:  https://openfoam.org                  |
|   \\  /    A nd           | Version:  9                                     |
|    \\/     M anipulation  |                                                 |
\*---------------------------------------------------------------------------*/
FoamFile
{
    format      ascii;
    class       volSymmTensorField;
    object      tau;
}
// * * * * * * * * * * * * * * * * * * * * * * * * * * * * * * * * * * * * * //

dimensions      [1 -1 -2 0 0 0 0];

internalField   uniform (0 0 0 0 0 0);

boundaryField
{
   Inlet
    {
      // TODO: add stress BCs
       type            fixedValue;
       value           uniform (0 0 0 0 0 0);
    }
    
    Outlet
    {
       type            zeroGradient;
    }

    Bottom
    {
       // type            linearExtrapolation;
       // value           uniform (0 0 0 0 0 0);
       type            calculated;
       value           uniform (0 0 0 0 0 0);
    }
    
    Cylinder
    {
       // type            linearExtrapolation;
       // value           uniform (0 0 0 0 0 0);
       type            calculated;
       value           uniform (0 0 0 0 0 0);
    }
    
    Back
    {
       type            zeroGradient;
    }
    
    Atmosphere
    {
         type            zeroGradient;
    }
    
    Symmetry
    {
       type            symmetryPlane;
    }
}
