/*--------------------------------*- C++ -*----------------------------------*\
| =========                 |                                                 |
| \\      /  F ield         | OpenFOAM: The Open Source CFD Toolbox           |
|  \\    /   O peration     | Version:  v2106                                 |
|   \\  /    A nd           | Website:  www.openfoam.com                      |
|    \\/     M anipulation  |                                                 |
\*---------------------------------------------------------------------------*/
FoamFile
{
    version     2.0;
    format      ascii;
    class       volVectorField;
    object      U;
}
// * * * * * * * * * * * * * * * * * * * * * * * * * * * * * * * * * * * * * //

dimensions      [0 1 -1 0 0 0 0];

internalField   uniform (0 0 0);

boundaryField
{
    #includeEtc "caseDicts/setConstraintTypes"

    Inlet
    {
        type            groovyBC;
        value           uniform (0 0 0);
        valueExpression "vector(velProf,0,0)";
        variables       (
            "normalDepth=1.0;"
            "plN=1.0;"
            "expFactor=(1.0+plN)/plN;"
            // "normalPos=1.0-(pos().y/nd);"
            "normalPos=mag(1.0-(pos().z/normalDepth));"
            "velProf=(1.0+2.0*plN)/(1.0+plN)*(1.0-pow(normalPos, expFactor));"
        );
    }

    Outlet
    {
        // original BC setup here
//         type    zeroGradient;
        // mud-flow setup here
        type            inletOutlet;
        inletValue      uniform (0 0 0);
        value           uniform (0 0 0);
    }

    Back
    {
//         type    zeroGradient;
        type    slip;
    }

    Bottom
    {
        type            noSlip;
    }

    Cylinder
    {
        type            noSlip;
    }

    Atmosphere
    {
        type            pressureInletOutletVelocity;
        value           uniform (0 0 0);
    }

    Symmetry
    {
        type            symmetryPlane;
    }
}


// ************************************************************************* //
