/*--------------------------------*- C++ -*----------------------------------*\
| =========                 |                                                 |
| \\      /  F ield         | OpenFOAM: The Open Source CFD Toolbox           |
|  \\    /   O peration     | Version:  v2106                                 |
|   \\  /    A nd           | Website:  www.openfoam.com                      |
|    \\/     M anipulation  |                                                 |
\*---------------------------------------------------------------------------*/
FoamFile
{
    version     2.0;
    format      ascii;
    class       volScalarField;
    object      nut;
}
// * * * * * * * * * * * * * * * * * * * * * * * * * * * * * * * * * * * * * //

dimensions      [0 2 -1 0 0 0 0];

internalField   uniform 0;

boundaryField
{
    #includeEtc "caseDicts/setConstraintTypes"

    inlet
    {
        type            groovyBC;
        refValue        uniform 0;
        refGradient     uniform 0;
        valueFraction   uniform 1;
        value           uniform 0;
        valueExpression "inletprofilenut(pos().y)";
        gradientExpression "0";
        fractionExpression "1";
        evaluateDuringConstruction 1;
        variables       "";
        timelines       (
    );
        lookuptables    (
    {
        name            inletprofilenut;
        file            "./1d_profil/nut.xy";
        outOfBounds     clamp;
    }
    );
    }

    outlet
    {
        type            calculated;
        value           uniform 0;
    }

    back
    {
        type            calculated;
        value           uniform 0;
    }

    blockFaces
    {
        type            nutkWallFunction;
        value           uniform 0;
    }

    bottom
    {
        type            nutkWallFunction;
        value           uniform 0;
    }

    atmosphere
    {
        type            calculated;
        value           uniform 0;
    }
}


// ************************************************************************* //
