/*--------------------------------*- C++ -*----------------------------------*\
| =========                 |                                                 |
| \\      /  F ield         | OpenFOAM: The Open Source CFD Toolbox           |
|  \\    /   O peration     | Version:  5                                     |
|   \\  /    A nd           | Web:      www.OpenFOAM.org                      |
|    \\/     M anipulation  |                                                 |
\*---------------------------------------------------------------------------*/
FoamFile
{
    version     2.0;
    format      ascii;
    class       dictionary;
    location    "system";
    object      setFieldsDict;
}
// * * * * * * * * * * * * * * * * * * * * * * * * * * * * * * * * * * * * * //

normalDepth 0.00798;
normalVelocity 1.03738;

defaultFieldValues
(
    volScalarFieldValue alpha.water 0
);

regions
(

  boxToCell
    {
        box (0 0 0) (1.0 $normalDepth 1);
        fieldValues
        (
            volScalarFieldValue alpha.water 1
            // volVectorFieldValue U ( 0.112793 0 0 )
            // volVectorFieldValue U ( $normalVelocity 0.0 0.0 )
            volVectorFieldValue U ( 0.0 0.0 0.0 )
        );
    }
);


// ************************************************************************* //
