/*--------------------------------*- C++ -*----------------------------------*\
| =========                 |                                                 |
| \\      /  F ield         | OpenFOAM: The Open Source CFD Toolbox           |
|  \\    /   O peration     | Version:  9.0                                 |
|   \\  /    A nd           | Web:      www.OpenFOAM.org                      |
|    \\/     M anipulation  |                                                 |
\*---------------------------------------------------------------------------*/
FoamFile
{
    version     2.0;
    format      ascii;
    class       dictionary;
    location    "system";
    object      setFieldsDict;
}
// * * * * * * * * * * * * * * * * * * * * * * * * * * * * * * * * * * * * * //

// set IC based on 1D simulations
expressions
(
        initAlpha
        {
                field alpha.water; //field to initialise
                expression "(pos().y+cellDelta/2.0)<=normalDepth ? 1.0 : ((pos().y-cellDelta/2.0)>normalDepth ? 0.0 : (normalDepth-(pos().y-cellDelta/2.0))/cellDelta)";
                variables       (
            		"normalDepth=0.38093709;"
            		"normalVel=3.3915176;"
                        "cellDelta=normalDepth*6.0/5.0/33.0;"
        		);
                keepPatches 1;
        }

        initTwoPhaseVel
        {
                field U; //field to initialise
                keepPatches true;
                create false;
                // expression "y<=normalDepth ? 1.0 : 0.0";
                expression "normalVel*vector(1,0,0)";
                variables       (
            		"normalDepth=0.38093709;"
            		"normalVel=3.3915176;"
        		);
        }

        initPressure
        {
                field p_rgh; //field to initialise
                // expression "inletprofilealpha(pos().y)";
                expression "0.0";
                keepPatches 1;
        }

);

// ************************************************************************* // 
