/*--------------------------------*- C++ -*----------------------------------*\
| =========                 |                                                 |
| \\      /  F ield         | OpenFOAM: The Open Source CFD Toolbox           |
|  \\    /   O peration     | Version:  5                                     |
|   \\  /    A nd           | Web:      www.OpenFOAM.org                      |
|    \\/     M anipulation  |                                                 |
\*---------------------------------------------------------------------------*/
FoamFile
{
    version     2.0;
    format      ascii;
    class       dictionary;
    location    "system";
    object      fvSolution;
}
// * * * * * * * * * * * * * * * * * * * * * * * * * * * * * * * * * * * * * //

solvers
{
    // "alpha.water.*"
    // {
    //     nAlphaCorr      2;
    //     nAlphaSubCycles 2;
    //     cAlpha          1;

    //     MULESCorr       yes;
    //     nLimiterIter    4;

    //     solver          smoothSolver;
    //     smoother        symGaussSeidel;
    //     tolerance       1e-8;
    //     relTol          0;
    // }

    "alpha.water.*"
    {
        isoFaceTol      1e-8;
        surfCellTol     1e-6;
        nAlphaBounds    3;
        snapTol         1e-12;
        clip            true;
        writeSurfCells  false;
        writeBoundedCells false;
        writeIsoFaces   false;
        // reconstructionScheme plicRDF; // isoAlpha
        reconstructionScheme isoAlpha;

        nAlphaSubCycles 2;
        cAlpha          1; // Read by interIsoFoam but not used
    }

    "pcorr.*"
    {
        solver          GAMG;
        smoother        DIC;

        tolerance       1e-3;
        relTol          0;
    };

    p_rgh
    {
        solver          GAMG;
        smoother        DIC;

        tolerance       1e-7;
        relTol          0;
    };

    p_rghFinal
    {
        $p_rgh;
        relTol          0;
    }

    p
    {
        solver          GAMG;
        smoother        DIC;

        tolerance       1e-7;
        relTol          0;
    };

    pFinal
    {
        $p_rgh;
        relTol          0;
    }

    "(U|k|omega).*"
    {
        solver          smoothSolver;
        smoother        symGaussSeidel;

        nSweeps         1;
        tolerance       1e-7;
        relTol          0;
        minIter         1;
    };
}

PIMPLE
{
    momentumPredictor no;
    nCorrectors     3;
    nOuterCorrectors    2;
    nNonOrthogonalCorrectors 1;

    pRefPoint      (0.025 -0.001 0.0);
    pRefValue      0;
}

relaxationFactors
{
    equations
    {
        ".*" 1;
    }
}

cache
{
    grad(U);
}

// ************************************************************************* //