/*--------------------------------*- C++ -*----------------------------------*\
| =========                 |                                                 |
| \\      /  F ield         | OpenFOAM: The Open Source CFD Toolbox           |
|  \\    /   O peration     | Version:  v2106                                 |
|   \\  /    A nd           | Website:  www.openfoam.com                      |
|    \\/     M anipulation  |                                                 |
\*---------------------------------------------------------------------------*/
FoamFile
{
    version     2.0;
    format      ascii;
    class       dictionary;
    object      controlDict;
}
// * * * * * * * * * * * * * * * * * * * * * * * * * * * * * * * * * * * * * //

application     interFoam;
// application     interIsoFoam;

startFrom       latestTime;

startTime       0;

stopAt          endTime;

endTime         10.0;

deltaT          0.00002;

writeControl    adjustable;

writeInterval   0.005;

purgeWrite      0;

writeFormat     binary;

writePrecision  6;

writeCompression on;

timeFormat      general;

timePrecision   6;

runTimeModifiable yes;

adjustTimeStep  yes;

// maxCo           0.45;
//
// maxAlphaCo      0.45;

maxCo           0.449;

maxAlphaCo      0.449;

maxDeltaT       1;

libs (
    //    "libsimpleFunctionObjects.so"
        "libsimpleSwakFunctionObjects.so"
        "libswakFunctionObjects.so"
        "libgroovyBC.so"
        "libOpenFOAM.so"
        "libforces.so"
    );

functions
{
    forces
    {
        type forces;
        functionObjectLibs ("libforces.so");
        patches (blockFaces);
        rho rhoInf;
        rhoInf 1; // Reference density, fluid
        CofR (0.0 0.0 0.0010); // Origin for moment calculations
        executeInterval     1;
        writeControl timeStep;
        // writeControl     writeTime;
        writeInterval 1;
        pName           p;
        Uname           U;
        // pName           pa;
        // Uname           Ua;
        log             true;
    }

    runupGauge1
    {
        type swakExpression;
        verbose true;
        valueType set;
        setName  hg1;
        outputControl timeStep;
        outputInterval 1;
        aliases {
            alpha1 alpha.water;
        }
        variables (
            "aThres=0.50;"
        );
        // detect and return interface z coordinate
        expression "mag(alpha1-aThres) <= min(mag(alpha1-aThres)) && alpha1>0.001 ? pos().z : 0.0";
        accumulations (
            // min
            // average
            max
        );
        set {
            type uniform;
            // type lineUniform;
            axis z;
            start (0.01197 0.0203 0.0);
            end (0.01197 0.0203 0.1197);
            nPoints 101;
        }
        interpolate true;
        interpolationType cellPoint;
        ignore_unimplemented_simpleFunctionObject::updateMesh true;
    }
};

// ************************************************************************* //
