/*--------------------------------*- C++ -*----------------------------------*\
| =========                 |                                                 |
| \\      /  F ield         | OpenFOAM: The Open Source CFD Toolbox           |
|  \\    /   O peration     | Version:  v2106                                 |
|   \\  /    A nd           | Website:  www.openfoam.com                      |
|    \\/     M anipulation  |                                                 |
\*---------------------------------------------------------------------------*/
FoamFile
{
    version     2.0;
    format      ascii;
    class       dictionary;
    object      controlDict;
}
// * * * * * * * * * * * * * * * * * * * * * * * * * * * * * * * * * * * * * //

// application     interFoam;
application     interIsoFoam;

startFrom       startTime;

startTime       0;

stopAt          endTime;

endTime         5.0;

deltaT          0.004;

writeControl    adjustable;

writeInterval   0.05;

purgeWrite      0;

writeFormat     ascii;

writePrecision  6;

writeCompression on;

timeFormat      general;

timePrecision   6;

runTimeModifiable yes;

adjustTimeStep  yes;

maxCo           0.45;

maxAlphaCo      0.45;

maxDeltaT       1;

functions
{
    forces
    {
        type forces;
        functionObjectLibs ("libforces.so");
        patches (blockFaces);
        rho rhoInf;
        rhoInf 1; // Reference density, fluid
        CofR (0.0 0.0 0.0010); // Origin for moment calculations
        executeInterval     1;
        writeControl timeStep;
        // writeControl     writeTime;
        writeInterval 1;
        pName           p;
        Uname           U;
        // pName           pa;
        // Uname           Ua;
        log             true;
    }
};

// ************************************************************************* //
