/*--------------------------------*- C++ -*----------------------------------*\
| =========                 |                                                 |
| \\      /  F ield         | OpenFOAM: The Open Source CFD Toolbox           |
|  \\    /   O peration     | Website:  https://openfoam.org                  |
|   \\  /    A nd           | Version:  9                                     |
|    \\/     M anipulation  |                                                 |
\*---------------------------------------------------------------------------*/
FoamFile
{
    format      ascii;
    class       dictionary;
    object      constitutiveProperties;
}
// * * * * * * * * * * * * * * * * * * * * * * * * * * * * * * * * * * * * * //
 
phases (water air);

water
{
      parameters
       {		        
        type             HerschelBulkley;
        rho              rho [ 1 -3 0 0 0 0 0 ] 2130.0;
        eta0            eta0   [ 1 -1 -1 0 0 0 0 ] 200.0;
        tau0            tau0  [ 1 -1 -2 0 0 0 0 ] 0.0; 
        k               k     [ 1 -1 -1 0 0 0 0 ] 150.0; 
        n               n     [ 0 0 0 0 0 0 0 ] 0.30; 

        PapanastasiouRegularization false;
       }
}

air
{
     parameters
       {		        
         type            Newtonian;
         rho             rho [1 -3 0 0 0 0 0] 1;
         eta             eta [1 -1 -1 0 0 0 0] 1e-5; 
       }
}
 

sigma           sigma [ 1 0 -2 0 0 0 0 ] 0.07;

// ************************************************************************* //
