/*--------------------------------*- C++ -*----------------------------------*\
| =========                 |                                                 |
| \\      /  F ield         | OpenFOAM: The Open Source CFD Toolbox           |
|  \\    /   O peration     | Version:  5                                     |
|   \\  /    A nd           | Web:      www.OpenFOAM.org                      |
|    \\/     M anipulation  |                                                 |
\*---------------------------------------------------------------------------*/
FoamFile
{
    version     2.0;
    format      ascii;
    class       uniformDimensionedVectorField;
    location    "constant";
    object      g;
}
// * * * * * * * * * * * * * * * * * * * * * * * * * * * * * * * * * * * * * //

slopeSin 0.060;
grav 9.81;
slopeCos #calc "sqrt(1.0-$slopeSin*$slopeSin)";
gx #calc "(1.0)*$grav*$slopeSin";
gy #calc "(-1.0)*$grav*$slopeCos";

dimensions      [0 1 -2 0 0 0 0];
// value           (0.0836768475 -9.809643122 0.0);
value           ($gx $gy 0.0);


// ************************************************************************* //
