/*--------------------------------*- C++ -*----------------------------------*\
| =========                 |                                                 |
| \\      /  F ield         | OpenFOAM: The Open Source CFD Toolbox           |
|  \\    /   O peration     | Version:  v2106                                 |
|   \\  /    A nd           | Website:  www.openfoam.com                      |
|    \\/     M anipulation  |                                                 |
\*---------------------------------------------------------------------------*/
FoamFile
{
    version     2.0;
    format      ascii;
    class       uniformDimensionedVectorField;
    object      g;
}
// * * * * * * * * * * * * * * * * * * * * * * * * * * * * * * * * * * * * * //
slopeSin 0.0494;
// slopeCos #eval "sqrt(1.0-$slopeSin*$slopeSin)";
slopeCos ${{ sqrt(1.0-$slopeSin*$slopeSin) }};
grav 9.81;
// gx #eval "$(-1.0)*grav*$slopeSin";
gx ${{ (1.0)*$grav*$slopeSin }};
// gy #eval "$(-1.0)*grav*$slopeCos";
gz ${{ (-1.0)*$grav*$slopeCos }};

dimensions      [0 1 -2 0 0 0 0];
// value           (0.0836768475 -9.809643122 0.0);
value           ($gx 0.0 $gz);


// ************************************************************************* //
