/*--------------------------------*- C++ -*----------------------------------*\
| =========                 |                                                 |
| \\      /  F ield         | OpenFOAM: The Open Source CFD Toolbox           |
|  \\    /   O peration     | Website:  https://openfoam.org                  |
|   \\  /    A nd           | Version:  9                                     |
|    \\/     M anipulation  |                                                 |
\*---------------------------------------------------------------------------*/
FoamFile
{
    format      ascii;
    class       dictionary;
    object      controlDict;
}
// * * * * * * * * * * * * * * * * * * * * * * * * * * * * * * * * * * * * * //

application     rheoInterFoam;

startFrom       latestTime;

startTime       0;

stopAt          endTime;

endTime         72.0;

deltaT          0.000001;

writeControl    adjustableRunTime;

writeInterval   1.0;

purgeWrite      0;

// writeFormat     ascii;
writeFormat     binary;

writePrecision  6;

writeCompression off;

timeFormat      general;

timePrecision   6;

runTimeModifiable yes;

adjustTimeStep  yes;

maxCo           0.475;

maxAlphaCo      0.475;

maxDeltaT       0.1;

libs (
    //    "libsimpleFunctionObjects.so"
        "libsimpleSwakFunctionObjects.so"
        "libswakFunctionObjects.so"
        "libgroovyBC.so"
        "libOpenFOAM.so"
        // "libforces.so"
);

// ************************************************************************* //
