/*--------------------------------*- C++ -*----------------------------------*\
| =========                 |                                                 |
| \\      /  F ield         | OpenFOAM: The Open Source CFD Toolbox           |
|  \\    /   O peration     | Version:  5                                     |
|   \\  /    A nd           | Web:      www.OpenFOAM.org                      |
|    \\/     M anipulation  |                                                 |
\*---------------------------------------------------------------------------*/
FoamFile
{
    version     2.0;
    format      ascii;
    class       dictionary;
    location    "system";
    object      setFieldsDict;
}
// * * * * * * * * * * * * * * * * * * * * * * * * * * * * * * * * * * * * * //

normalDepth 0.00602890842;
normalVel 0.2429753
lengthLong #calc "$normalDepth*25.0*2.00";

defaultFieldValues
(
    volScalarFieldValue alpha.water 0
);

regions
(

  boxToCell
    {
        box (0 0 0) ($lengthLong $normalDepth 1);
        fieldValues
        (
            volScalarFieldValue alpha.water 1
            volVectorFieldValue U ( $normalVel 0 0 )
        );
    }
);


// ************************************************************************* //
