/*--------------------------------*- C++ -*----------------------------------*\
| =========                 |                                                 |
| \\      /  F ield         | OpenFOAM: The Open Source CFD Toolbox           |
|  \\    /   O peration     | Version:  5                                     |
|   \\  /    A nd           | Web:      www.OpenFOAM.org                      |
|    \\/     M anipulation  |                                                 |
\*---------------------------------------------------------------------------*/
FoamFile
{
    version     2.0;
    format      ascii;
    class       dictionary;
    object      blockMeshDict;
}
// * * * * * * * * * * * * * * * * * * * * * * * * * * * * * * * * * * * * * //

// convertToMeters 1;
normalDepth 0.00602890842;
ny #calc "round(32)";
lengthTrav #calc "$normalDepth*1.0/$ny";
lengthVert #calc "$normalDepth*6.0/5.0";
lengthLong #calc "$normalDepth*25.0";
nx #calc "round((1.0/2.50)*$lengthLong*1.0/$normalDepth*$ny)";

vertices
(
//     (0 0 0)
//     (0.00001163636 0 0)
//     (0.00001163636 0.0032 0)
//     (0 0.0032 0)
//     (0 0 0.00001163636)
//     (0.00001163636 0 0.00001163636)
//     (0.00001163636 0.0032 0.00001163636)
//     (0 0.0032 0.00001163636)

    (0 0 0)
    ($lengthLong 0 0)
    ($lengthLong $lengthVert 0)
    (0 $lengthVert 0)
    (0 0 $lengthTrav)
    ($lengthLong 0 $lengthTrav)
    ($lengthLong $lengthVert $lengthTrav)
    (0 $lengthVert $lengthTrav)

);

blocks
(
    hex (0 1 2 3 4 5 6 7) ($nx $ny 1) simpleGrading (1 1 1)
  
);

edges
(
);

boundary
(
    inflow
    {
        // type cyclic;
        // neighbourPatch    rightWall;
        type patch;
        faces
        (
            (0 4 7 3)
        );
    }

    outflow
    {
        // type cyclic;
        // neighbourPatch    inflow;
        type patch;
        faces
        (
            (1 5 6 2)
        );
    }

    lowerWall
    {
        /*type nutkRoughWallFunction;
        Ks              uniform 0;
        Cs              uniform 0.5;*/
        type wall;
        faces
        (
            (0 1 5 4)
        );
    }

    atmosphere
    {
        type patch;
//         type symmetryPlane;
        faces
        (
            (3 2 6 7)
        );
    }
    
    frontAndBack
    {
        type empty;
        faces
        (
            (0 1 2 3)
            (4 5 6 7)
   
        );
    }
);

mergePatchPairs
(
);

// ************************************************************************* //
