/*--------------------------------*- C++ -*----------------------------------*\
| =========                 |                                                 |
| \\      /  F ield         | OpenFOAM: The Open Source CFD Toolbox           |
|  \\    /   O peration     | Version:  v2106                                 |
|   \\  /    A nd           | Website:  www.openfoam.com                      |
|    \\/     M anipulation  |                                                 |
\*---------------------------------------------------------------------------*/
FoamFile
{
    version     2.0;
    format      ascii;
    class       volVectorField;
    object      U;
}
// * * * * * * * * * * * * * * * * * * * * * * * * * * * * * * * * * * * * * //

dimensions      [0 1 -1 0 0 0 0];

internalField   uniform (0 0 0);

boundaryField
{
    #includeEtc "caseDicts/setConstraintTypes"

    Inlet
    {
        type            groovyBC;
        refValue        uniform   (0 0 0); 
        valueExpression "vector(inletprofileux(pos().z),0,0)";
        gradientExpression "vector(0,0,0)";
        fractionExpression "1";
        evaluateDuringConstruction 1;
        variables       "";
        timelines       (
        );
        lookuptables    (
            {
                name            inletprofileux;
                file        "./1d_profil/U0.xy";
                outOfBounds     clamp;
            }
        );
    }

    Outlet
    {
        // original BC setup here
        type    zeroGradient;
        // mud-flow setup here
        // type            inletOutlet;
        // inletValue      uniform (0 0 0);
        // value           uniform (0 0 0);
    }

    Back
    {
        type    zeroGradient;
        // type    slip;
    }

    Bottom
    {
        // type            noSlip;
        type            fixedValue;
        value           uniform (0 0 0);
    }

    Cylinder
    {
        // type            noSlip;
        type            fixedValue;
        value           uniform (0 0 0);
    }

    Atmosphere
    {
        // type            pressureInletOutletVelocity;
        // value           uniform (0 0 0);
        type          zeroGradient;
    }

    Symmetry
    {
        type            symmetryPlane;
    }
}


// ************************************************************************* //
