/*--------------------------------*- C++ -*----------------------------------*\
| =========                 |                                                 |
| \\      /  F ield         | OpenFOAM: The Open Source CFD Toolbox           |
|  \\    /   O peration     | Version:  v2106                                 |
|   \\  /    A nd           | Website:  www.openfoam.com                      |
|    \\/     M anipulation  |                                                 |
\*---------------------------------------------------------------------------*/
FoamFile
{
    version     2.0;
    format      ascii;
    class       uniformDimensionedVectorField;
    object      g;
}
// * * * * * * * * * * * * * * * * * * * * * * * * * * * * * * * * * * * * * //
slopeSin 0.060;
grav 9.81;
slopeCos #calc "sqrt(1.0-$slopeSin*$slopeSin)";
gx #calc "(1.0)*$grav*$slopeSin";
gz #calc "(-1.0)*$grav*$slopeCos";

dimensions      [0 1 -2 0 0 0 0];
// value           (0.0836768475 -9.809643122 0.0);
value           ($gx 0.0 $gz);


// ************************************************************************* //
