/*--------------------------------*- C++ -*----------------------------------*\
| =========                 |                                                 |
| \\      /  F ield         | OpenFOAM: The Open Source CFD Toolbox           |
|  \\    /   O peration     | Version:  5                                     |
|   \\  /    A nd           | Web:      www.OpenFOAM.org                      |
|    \\/     M anipulation  |                                                 |
\*---------------------------------------------------------------------------*/
FoamFile
{
    version     2.0;
    format      ascii;
    class       dictionary;
    location    "system";
    object      controlDict;
}
// * * * * * * * * * * * * * * * * * * * * * * * * * * * * * * * * * * * * * //

application     interCyclicFoam;
// application     interIsoCyclicFoam;

startFrom       latestTime;

startTime       0;

stopAt          endTime;

endTime         800;

deltaT          0.01;

writeControl    adjustableRunTime;

writeInterval   20;

purgeWrite      0;

writeFormat     ascii;

writePrecision  6;

writeCompression uncompressed;

timeFormat      general;

timePrecision   6;

runTimeModifiable yes;

adjustTimeStep  on;

maxCo           0.8;
maxAlphaCo      0.8;

maxDeltaT       0.5;

// functions
// {
//  probes
// {
// libs            ("libforces.so");
// type             probes;
// writeControl     writeTime;
// fields (p U);
// probeLocations
// (
//     (0.8 0.008 0.05)
//     (0.8 0.005 0.05)
// );
// }
// ************************************************************************* //
