/*--------------------------------*- C++ -*----------------------------------*\
| =========                 |                                                 |
| \\      /  F ield         | OpenFOAM: The Open Source CFD Toolbox           |
|  \\    /   O peration     | Version:  2406                                  |
|   \\  /    A nd           | Website:  www.openfoam.com                      |
|    \\/     M anipulation  |                                                 |
\*---------------------------------------------------------------------------*/
FoamFile
{
    version     2.0;
    format      binary;
    arch        "LSB;label=32;scalar=64";
    class       polyBoundaryMesh;
    location    "constant/polyMesh";
    object      boundary;
}
// * * * * * * * * * * * * * * * * * * * * * * * * * * * * * * * * * * * * * //

7
(
    Outlet
    {
        type            wall;
        inGroups        1(wall);
        nFaces          1875;
        startFace       1231049;
    }
    Symmetry
    {
        type            symmetryPlane;
        inGroups        List<word> 1(symmetryPlane);
        nFaces          9600;
        startFace       1232924;
    }
    Cylinder
    {
        type            wall;
        inGroups        1(wall);
        nFaces          3900;
        startFace       1242524;
    }
    Inlet
    {
        type            wall;
        inGroups        1(wall);
        nFaces          3300;
        startFace       1246424;
    }
    Back
    {
        type            wall;
        inGroups        1(wall);
        nFaces          6000;
        startFace       1249724;
    }
    Atmosphere
    {
        type            wall;
        inGroups        1(wall);
        nFaces          5551;
        startFace       1255724;
    }
    Bottom
    {
        type            wall;
        inGroups        1(wall);
        nFaces          5551;
        startFace       1261275;
    }
)

// ************************************************************************* //
