/*--------------------------------*- C++ -*----------------------------------*\
| =========                 |                                                 |
| \\      /  F ield         | OpenFOAM: The Open Source CFD Toolbox           |
|  \\    /   O peration     | Website:  https://openfoam.org                  |
|   \\  /    A nd           | Version:  9                                     |
|    \\/     M anipulation  |                                                 |
\*---------------------------------------------------------------------------*/
FoamFile
{
    format      ascii;
    class       dictionary;
    object      fvSolution;
}
// * * * * * * * * * * * * * * * * * * * * * * * * * * * * * * * * * * * * * //

solvers
{
     "alpha.water.*"
    {
        nAlphaCorr      2;
        nAlphaSubCycles 1;
        cAlpha          1;

        MULESCorr       yes;
        nLimiterIter    6;

        solver          smoothSolver;
        smoother        symGaussSeidel;
        tolerance       1e-8;
        relTol          0;
    }

    // "alpha.water.*"
    // {
    //     nAlphaCorr      1;
    //     nAlphaSubCycles 3;
    // }

    "pcorr.*"
    {
        solver          PCG;
        preconditioner  DIC;
        tolerance       1e-10;
        relTol          0;
        maxIter         400;
    }

    p_rgh
    {
        solver          PCG;
        preconditioner  DIC;
        tolerance       1e-5;
        relTol          0.01;
        maxIter         400;
    }

    p_rghFinal
    {
        $p_rgh;
        relTol          0;
        maxIter         200;
    }

    "(U.*)"
    {
        solver          PBiCG;
        preconditioner  DILU;
        tolerance       1e-08;
        relTol          0;
        maxIter         400;
    }
}

// PIMPLE
// {
//     SIMPLEC           true;
//     momentumPredictor true;

//     nOuterCorrectors  1;
//     nCorrectors       2;

//     nNonOrthogonalCorrectors 0;
// }

PIMPLE
{
    SIMPLEC           false;
    momentumPredictor no;
    nCorrectors     3;
    nNonOrthogonalCorrectors 0;

    pRefPoint      (0.51 0.51 0.51);
    pRefValue      0;
}

relaxationFactors
{
    equations
    {
        ".*" 1;
    }
}

// ************************************************************************* //
