/*--------------------------------*- C++ -*----------------------------------*\
| =========                 |                                                 |
| \\      /  F ield         | OpenFOAM: The Open Source CFD Toolbox           |
|  \\    /   O peration     | Version: v2412                                  |
|   \\  /    A nd           | Website: www.OpenFOAM.com                       |
|    \\/     M anipulation  |                                                 |
\*---------------------------------------------------------------------------*/
FoamFile
{
    version     2.0;
    format      ascii;
    class       dictionary;
    location    "system";
    object      createPatchDict;
}
// * * * * * * * * * * * * * * * * * * * * * * * * * * * * * * * * * * * * * //

// Tolerance used in matching faces. Absolute tolerance is span of
// face times this factor.
matchTolerance 1E-3;

// Do a synchronisation of coupled points.
pointSync true;

// Patches to create.
// If no patches does a coupled point and face synchronisation anyway.
patches
(
    {
        //- Master side patch
        name            frontNew;
        patchInfo
        {
            type            cyclicAMI;
            // type            cyclic;
            matchTolerance  0.0001;
            neighbourPatch  backNew;
            transform translational;
            separationVector (0 -5 0);
        }
        constructFrom patches;
        patches (front);
    }

    {
        //- Slave side patch
        name            backNew;
        patchInfo
        {
            type            cyclicAMI;
            // type            cyclic;
            matchTolerance  0.0001;
            neighbourPatch  frontNew;
            transform translational;
            separationVector (0 -5 0);
        }
        constructFrom patches;
        patches (back);
    }
);

// ************************************************************************* //
