/*--------------------------------*- C++ -*----------------------------------*\
| =========                 |                                                 |
| \\      /  F ield         | OpenFOAM: The Open Source CFD Toolbox           |
|  \\    /   O peration     | Website:  https://openfoam.org                  |
|   \\  /    A nd           | Version:  9                                     |
|    \\/     M anipulation  |                                                 |
\*---------------------------------------------------------------------------*/
FoamFile
{
    version     2.0;
    format      ascii;
    class       dictionary;
    object      fvSchemes;
}
// * * * * * * * * * * * * * * * * * * * * * * * * * * * * * * * * * * * * * //

ddtSchemes
{
    default         Euler;
}

gradSchemes
{
    default         Gauss linear;
    grad(p)         Gauss linear;
    grad(U)         Gauss linear;
    linExtrapGrad       Gauss linear;

}

divSchemes
{
    default	none;
    // div(rhoPhi,U)    Gauss vanLeerTDC;
    // div(rhoPhi,U)    Gauss limitedLinearV 1;
    // div(phi,alpha)   Gauss vanLeer;
    // div(phirb,alpha) Gauss interfaceCompression;
    // div(((rho*nuEff)*dev2(T(grad(U))))) Gauss linear;
    // // div(phi,tau)     Gauss vanLeerTDC;
    // div(phi,tau)     Gauss vanLeer;
    // div(phi,U)       vanLeerV;

    // div(rhoPhi,U)    Gauss limitedLinearV 1;
    div(phi,alpha)  Gauss vanLeer;
    div(phi,omega)  Gauss upwind;
    div(phi,k)  Gauss upwind;
    // div(phirb,alpha) Gauss linear;
    div(phirb,alpha) Gauss interfaceCompression;
    div(((rho*nuEff)*dev2(T(grad(U))))) Gauss linear;

    div(rhoPhi,U)    Gauss vanLeerTDC;
    div(phi,tau)     Gauss vanLeerTDC;
}

laplacianSchemes
{
    // default                             Gauss linear corrected;
    // default         Gauss linear limited corrected 0.333;
    default Gauss linear limited 0.5;
}

interpolationSchemes
{
    default             linear;
    interpolate(tau)     linear;
    flux(U)              linear;
    interpolate(nHat)   linear;
    "interpolate\(interfaceNormal.*\)" linear;
    interpolate(rAGamma)  linear;
    interpolate(sGrad(U))  linear;
    interpolate((1|A(U))) linear;
    interpolate((rho*(1|A(U))))  linear;
    dotInterpolate(S,U_0) linear;
    flux(HbyA)           linear;
    interpolate(K_)     linear;
    interpolate(sigma)  linear;
}

snGradSchemes
{
    default         corrected;
}

fluxRequired
{
    default         no;
    p_rgh;
    pcorr;
    alpha.water;
}
// ************************************************************************* //
