/*--------------------------------*- C++ -*----------------------------------*\
| =========                 |                                                 |
| \\      /  F ield         | OpenFOAM: The Open Source CFD Toolbox           |
|  \\    /   O peration     | Version:  v2106                                 |
|   \\  /    A nd           | Website:  www.openfoam.com                      |
|    \\/     M anipulation  |                                                 |
\*---------------------------------------------------------------------------*/
FoamFile
{
    version     2.0;
    format      ascii;
    class       volScalarField;
    object      nut;
}
// * * * * * * * * * * * * * * * * * * * * * * * * * * * * * * * * * * * * * //

dimensions      [0 2 -1 0 0 0 0];

internalField   uniform 0;

boundaryField
{
    #includeEtc "caseDicts/setConstraintTypes"

    sideWalls
    {
        type            nutkWallFunction;
        value           uniform 0;
    }

    blockFaces
    {
        type            nutkWallFunction;
        value           uniform 0;
    }

    bottom
    {
        type            nutkWallFunction;
        value           uniform 0;
    }

    atmosphere
    {
        type            calculated;
        value           uniform 0;
    }
}


// ************************************************************************* //
