/*--------------------------------*- C++ -*----------------------------------*\
| =========                 |                                                 |
| \\      /  F ield         | OpenFOAM: The Open Source CFD Toolbox           |
|  \\    /   O peration     | Version:  5                                     |
|   \\  /    A nd           | Web:      www.OpenFOAM.org                      |
|    \\/     M anipulation  |                                                 |
\*---------------------------------------------------------------------------*/
FoamFile
{
    version     2.0;
    format      ascii;
    class       dictionary;
    object      blockMeshDict;
}
// * * * * * * * * * * * * * * * * * * * * * * * * * * * * * * * * * * * * * //

// convertToMeters 1;
normalDepth 1.0;
ny #calc "round(22.5*3.0)";
// lengthTrav #calc "$normalDepth*1.0/$ny";
lengthTrav #calc "$normalDepth*4.0";
// lengthVert #calc "$normalDepth*4.0";
lengthVert #calc "$normalDepth*1.0/$ny";
lengthLong #calc "$normalDepth*31.0";
nx #calc "round((1.0/2.750)*$lengthLong*1.0/$normalDepth*$ny)";

vertices
(
//     (0 0 0)
//     (0.00001163636 0 0)
//     (0.00001163636 0.0032 0)
//     (0 0.0032 0)
//     (0 0 0.00001163636)
//     (0.00001163636 0 0.00001163636)
//     (0.00001163636 0.0032 0.00001163636)
//     (0 0.0032 0.00001163636)

    (0 0 0)
    ($lengthLong 0 0)
    ($lengthLong $lengthVert 0)
    (0 $lengthVert 0)
    (0 0 $lengthTrav)
    ($lengthLong 0 $lengthTrav)
    ($lengthLong $lengthVert $lengthTrav)
    (0 $lengthVert $lengthTrav)

);

blocks
(
    hex (0 1 2 3 4 5 6 7) ($nx 1 $ny)
    simpleGrading
    (
        1                  // x-direction expansion ratio
        1
        (
            (0.333 0.5 1)    // 20% y-dir, 30% cells, expansion = 4
            (0.667 0.5 1)    // 60% y-dir, 40% cells, expansion = 1
        )
    )
  
);

edges
(
);

boundary
(
    inflow
    {
        // type cyclic;
        // neighbourPatch    rightWall;
        type patch;
        faces
        (
            (0 4 7 3)
        );
    }

    outflow
    {
        // type cyclic;
        // neighbourPatch    inflow;
        type patch;
        faces
        (
            (1 5 6 2)
        );
    }

    lowerWall
    {
        /*type nutkRoughWallFunction;
        Ks              uniform 0;
        Cs              uniform 0.5;*/
        type wall;
        faces
        (
            (0 1 2 3)
        );
    }

    atmosphere
    {
        type patch;
//         type symmetryPlane;
        faces
        (
            (4 5 6 7)
        );
    }
    
    frontAndBack
    {
        type empty;
        faces
        (
            (0 1 5 4)
            (3 2 6 7)
   
        );
    }
);

mergePatchPairs
(
);

// ************************************************************************* //
